[General]
sim-time-limit = 100s

[Filas]
network = RedeFilas
**.gen0.interArrivalTime=exponential(${0.7, 0.8})
**.gen1.interArrivalTime=exponential(${0.9, 1.3})
**.gen2.interArrivalTime=exponential(${0.7, 1.5})
**.gen3.interArrivalTime=exponential(${0.9, 1.7})
**.queue0.serviceTime=exponential(0.1)
**.queue1.serviceTime=exponential(0.3)
**.queue2.serviceTime=exponential(0.5)
**.queue3.serviceTime=exponential(0.2)
**.splitter0.probSplit=uniform(0,1)
**.splitter1.probSplit=uniform(0,1)
**.splitter0.limitDecision=0.7
**.splitter1.limitDecision=0.7
**.queue0.queueSize.result-recording-modes = +histogram
**.queue1.queueSize.result-recording-modes = +histogram
**.queue2.queueSize.result-recording-modes = +histogram
**.queue3.queueSize.result-recording-modes = +histogram